LTspice 24.0.9 for Windows
Circuit: ABM_TABLE1.CIR
Start Time: Sat Mar 30 07:31:40 2024
solver = Normal
Maximum thread count: 12
tnom = 27
temp = 27
method = modified trap
Direct Newton iteration for .op point succeeded.
Total elapsed time: 0.051 seconds.

