LTspice 24.0.9 for Windows
Circuit: ABM_LAPLACE1.CIR
Start Time: Mon Mar 25 06:50:21 2024
solver = Normal
Maximum thread count: 12
tnom = 27
temp = 27
method = modified trap
.OP point found by inspection.
Total elapsed time: 0.061 seconds.

