Questionable use of curly braces in "b§erange 2 0 v=if({{p_limit1}<v(1)}&{{p_limit2}>v(1)},1,0)"
    Error: undefined symbol in: "(p_limit1)<[v](1)"
Questionable use of curly braces in "b§erange 2 0 v=if(({p_limit1}<v(1))&{{p_limit2}>v(1)},1,0)"
    Error: undefined symbol in: "(p_limit2)>[v](1)"
LTspice 24.0.9 for Windows
Circuit: Implementar con Behavioral Sources una función cuyo resultado es
Start Time: Sat Mar 30 12:34:59 2024
solver = Normal
Maximum thread count: 12
tnom = 27
temp = 27
method = modified trap
Direct Newton iteration for .op point succeeded.
Total elapsed time: 0.087 seconds.

