LTspice 24.0.9 for Windows
Circuit: ABM_VALUE1.CIR
Start Time: Sat May 11 11:25:02 2024
solver = Normal
Maximum thread count: 12
tnom = 27
temp = 27
method = modified trap
Direct Newton iteration for .op point succeeded.
Total elapsed time: 0.082 seconds.

