LTspice 24.0.9 for Windows
Circuit: ABM_RMS1.CIR
Start Time: Mon Mar 25 06:51:56 2024
solver = Normal
Maximum thread count: 12
tnom = 27
temp = 27
method = modified trap
Per .tran options, skipping operating point for transient analysis.
Total elapsed time: 0.147 seconds.

