LTspice 24.0.9 for Windows
Circuit: AMP2.CIR – CASCADED OPAMPS
Start Time: Sat May 18 13:53:01 2024
solver = Normal
Maximum thread count: 12
tnom = 27
temp = 27
method = modified trap
.OP point found by inspection.
Total elapsed time: 0.068 seconds.

