LTspice 24.0.9 for Windows
Circuit: OP_BANDWIDTH1.CIR - OPAMP BANDWIDTH
Start Time: Thu May 23 00:31:21 2024
solver = Normal
Maximum thread count: 12
tnom = 27
temp = 27
method = modified trap
.OP point found by inspection.
Total elapsed time: 0.037 seconds.

