LTspice 24.0.9 for Windows
Circuit: LPFILTER.CIR - SIMPLE RC LOW-PASS FILTER
Start Time: Mon Mar 18 07:59:23 2024
solver = Normal
Maximum thread count: 12
tnom = 27
temp = 27
method = modified trap
WARNING: Less than two connections to node a.  This node is used by vfcu.
Direct Newton iteration for .op point succeeded.

vin_max: MAX(v(in))=9.99966 FROM 0.0008 TO 0.002
vout_max: MAX(v(out))=7.05359 FROM 0.0008 TO 0.003
a_v: vout_max/vin_max=0.705383
v_c1: 1/(2*pi*p_r1*p_fc)=3.1831e-08

Total elapsed time: 0.086 seconds.

