LTspice 24.0.9 for Windows
Circuit: LPFILTER.CIR - SIMPLE RC LOW-PASS FILTER
Start Time: Thu Jun 27 15:36:28 2024
solver = Normal
Maximum thread count: 12
tnom = 27
temp = 27
method = modified trap
.OP point found by inspection.

vout_avg: AVG(v(out))=0.00414349 FROM 8 TO 1e+07

Measurement "vout_max" FAIL'ed

Measurement "vout_min" FAIL'ed
vout_hz: v(out)=(0.498375,-0.499101) at 5000

Total elapsed time: 0.103 seconds.

