Questionable use of curly braces in ".meas tran vout_square_90 param {v(3)*0.9}"
    Error: undefined symbol in: "[v](3)*0.9"
Questionable use of curly braces in ".meas tran vout_square_10 param {v(3)*0.1}"
    Error: undefined symbol in: "[v](3)*0.1"
Questionable use of curly braces in ".meas tran slew_rate2 param {(vout_square_90-vout_square_10)/tiempo_subida}"
    Error: undefined symbol in: "([vout_square_90]-vout_square_10)/tiempo_subida"
LTspice 24.0.9 for Windows
Circuit: OP_SLEW_RATE.CIR
Start Time: Fri May 24 14:52:10 2024
solver = Normal
Maximum thread count: 12
tnom = 27
temp = 27
method = modified trap
.OP point found by inspection.

vout_square_max: MAX(v(3))=10.0018 FROM 0 TO 5e-07
vout_square_90: (v(3)*0.9)=9.00008
vout_square_10: (v(3)*0.1)=1.00001
tiempo_subida=8.09947e-08 FROM 1.013e-08 TO 9.11246e-08
slew_rate2: ((vout_square_90-vout_square_10)/tiempo_subida)=9.87728e+07

Total elapsed time: 0.058 seconds.

