LTspice 24.0.9 for Windows
Circuit: *Half wave circuit with Diode
Start Time: Tue Mar 26 19:31:23 2024
solver = Normal
Maximum thread count: 12



.OP point found by inspection.
.step dmodel=1
tnom = 27
temp = 27
method = modified trap
.step dmodel=2

SPICE directive ".backanno" has no meaning for netlists.

Measurement: vout_max
  step	MAX(v(out))	FROM	TO
     1	0.400965	0	0.01
     2	0.83888	0	0.01

Total elapsed time: 0.266 seconds.

