LTspice 24.0.9 for Windows
Circuit: *Half wave circuit with Diode
Start Time: Mon Mar 18 08:25:24 2024
solver = Normal
Maximum thread count: 12
tnom = 27
temp = 27
method = modified trap
.OP point found by inspection.

vin_max: MAX(v(in))=0.999977 FROM 0.004 TO 0.006
vout_max: MAX(v(out))=0.450719 FROM 0.004 TO 0.006
diff_vin_vout: vin_max-vout_max=0.549258

Total elapsed time: 0.353 seconds.

