LTspice 24.0.9 for Windows
Circuit: *Half wave circuit with Diode
Start Time: Tue Mar 19 08:10:46 2024
solver = Normal
Maximum thread count: 12
tnom = 27
temp = 27
method = modified trap
.OP point found by inspection.

SPICE directive ".backanno" has no meaning for netlists.
vout_max: MAX(v(out))=0.400965 FROM 0 TO 0.01

Total elapsed time: 0.263 seconds.

