LTspice 24.0.9 for Windows
Circuit: *Half wave circuit with Diode
Start Time: Tue Mar 26 19:32:00 2024
solver = Normal
Maximum thread count: 12
tnom = 27
temp = 27
method = modified trap
.OP point found by inspection.
Total elapsed time: 0.077 seconds.

