LTspice 24.0.9 for Windows
Circuit: Funtion the fahrenheit degrees to celsius degress
Start Time: Wed Mar 20 10:44:21 2024
solver = Normal
Maximum thread count: 12
tnom = 27
temp = 27
method = modified trap
WARNING: Less than two connections to node a.  This node is used by v1.
Direct Newton iteration for .op point succeeded.
Total elapsed time: 0.055 seconds.

