LTspice 24.0.9 for Windows
Circuit: Funtion to du a calculus
Start Time: Tue Mar 19 09:37:56 2024
solver = Normal
Maximum thread count: 12
tnom = 27
temp = 27
method = modified trap
WARNING: Less than two connections to node a.  This node is used by v1.
Direct Newton iteration for .op point succeeded.
Total elapsed time: 0.045 seconds.

