LTspice 24.0.9 for Windows
Circuit: Funtion to du a calculus
Start Time: Mon Mar 25 15:08:36 2024
solver = Normal
Maximum thread count: 12
tnom = 27
temp = 27
method = modified trap
WARNING: Less than two connections to node a.  This node is used by vx.
WARNING: Less than two connections to node b.  This node is used by vx2.
Direct Newton iteration for .op point succeeded.
Total elapsed time: 0.061 seconds.

