LTspice 24.0.9 for Windows
Circuit: ADC2bits
Start Time: Wed Jun 19 21:18:08 2024
Error: unknown token in: "{v(in)/((2**2)-1)}>=v(vdac[[]1])?{vhigh}:{vlow}"
Questionable use of curly braces in "b1_out out[1] 0  v={v(in)/((2**2)-1)}>=v(vdac[1])?{vhigh}:{vlow}"
    Error: undefined symbol in: "[v](in)/((2**2)-1)"
Error: unknown token in: "{vref}*(v(out[[]1])/2+{vhigh}/4)"
Error: unknown token in: "{v(in)/((2**2)-1)}>=v(vdac[[]0])?{vhigh}:{vlow}"
Questionable use of curly braces in "b0_out out[0] 0  v={v(in)/((2**2)-1)}>=v(vdac[0])?{vhigh}:{vlow}"
    Error: undefined symbol in: "[v](in)/((2**2)-1)"
solver = Normal
Maximum thread count: 12
tnom = 27
temp = 27
method = modified trap
WARNING: Less than two connections to node out1[0].  This node is used by b:dac_2bits1:0_out.
Direct Newton iteration for .op point succeeded.
Total elapsed time: 0.085 seconds.

