Stray ".ends" card: .ends
LTspice 24.0.9 for Windows
Circuit: * C:\Users\jesse\OneDrive\Escritorio\ADC PROVICIONAL\ADC_SAR_01 - Copy.asc
Start Time: Tue Jun 18 09:59:25 2024
Error: unknown token in: "v(in)>=v(vdac[[]3])?{vhigh}:{vlow}"
Error: unknown token in: "{qinter}*{vref}*(v(out[[]3])/2+{vhigh}/4+{vlow}/8+{vlow}/16)"
Error: unknown token in: "v(in)>=v(vdac[[]2])?{vhigh}:{vlow}"
Error: unknown token in: "{qinter}*{vref}*(v(out[[]3])/2+v(out[2])/4+{vhigh}/8+{vlow}/16)"
Error: unknown token in: "v(in)>=v(vdac[[]1])?{vhigh}:{vlow}"
Error: unknown token in: "{qinter}*{vref}*(v(out[[]3])/2+v(out[2])/4+v(out[1])/8+{vhigh}/16)"
Error: unknown token in: "v(in)>=v(vdac[[]0])?{vhigh}:{vlow}"
Error: unknown token in: "v(in)>=v(vdac[[]2])?{vhigh}:{vlow}"
Error: unknown token in: "{qinter}*{vref}*(v(out[[]2])/2+{vhigh}/4+{vlow}/8)"
Error: unknown token in: "v(in)>=v(vdac[[]1])?{vhigh}:{vlow}"
Error: unknown token in: "{qinter}*{vref}*(v(out[[]2])/2+v(out[1])/4+{vhigh}/8)"
Error: unknown token in: "v(in)>=v(vdac[[]0])?{vhigh}:{vlow}"
solver = Normal
Maximum thread count: 12



WARNING: Less than two connections to node out[0].  This node is used by b:adc_4b:0_out.
WARNING: Less than two connections to node out1[0].  This node is used by b:adc_3b:0_out.
Direct Newton iteration for .op point succeeded.
.step fullscale=5
tnom = 27
temp = 27
method = modified trap
.step fullscale=15


Measurement: _____________________________________adc_4bits_____________________________________â paramâ 0
  step	_____________________________________adc_4bits_____________________________________â paramâ 0	FROM	TO
     1	18	0	18
     2	18	0	18

Measurement: 4b_inteval0
  step	v(in)	at
     1	0.312501	1.3125
     2	0.937501	1.9375

Measurement: 4b_inteval1
  step	v(in)	at
     1	0.624997	1.625
     2	1.875	2.875

Measurement: 4b_inteval2
  step	v(in)	at
     1	0.937501	1.9375
     2	2.8125	3.8125

Measurement: 4b_inteval3
  step	v(in)	at
     1	1.24997	2.24997
     2	3.75	4.75

Measurement: 4b_inteval4
  step	v(in)	at
     1	1.5625	2.5625
     2	4.6875	5.6875

Measurement: 4b_inteval5
  step	v(in)	at
     1	1.875	2.875
     2	5.625	6.625

Measurement: 4b_inteval6
  step	v(in)	at
     1	2.1875	3.1875
     2	6.5625	7.5625

Measurement: 4b_inteval7
  step	v(in)	at
     1	2.5	3.5
     2	7.5	8.5

Measurement: 4b_inteval8
  step	v(in)	at
     1	2.8125	3.8125
     2	8.4375	9.4375

Measurement: 4b_inteval9
  step	v(in)	at
     1	3.125	4.125
     2	9.375	10.375

Measurement: 4b_inteval10
  step	v(in)	at
     1	3.4375	4.4375
     2	10.3125	11.3125

Measurement: 4b_inteval11
  step	v(in)	at
     1	3.74997	4.74997
     2	11.25	12.25

Measurement: 4b_inteval12
  step	v(in)	at
     1	4.0625	5.0625
     2	12.1875	13.1875

Measurement: 4b_inteval13
  step	v(in)	at
     1	4.375	5.375
     2	13.125	14.125

Measurement: 4b_inteval14
  step	v(in)	at
     1	4.6875	5.6875
     2	14.0625	15.0625

Measurement: _____________________________________adc_3bits_____________________________________â paramâ 0
  step	_____________________________________adc_3bits_____________________________________â paramâ 0	FROM	TO
     1	18	0	18
     2	18	0	18

Measurement: 3b_inteval0
  step	v(in)	at
     1	0.625001	1.625
     2	1.875	2.875

Measurement: 3b_inteval1
  step	v(in)	at
     1	1.24997	2.24997
     2	3.75	4.75

Measurement: 3b_inteval2
  step	v(in)	at
     1	1.875	2.875
     2	5.625	6.625

Measurement: 3b_inteval3
  step	v(in)	at
     1	2.5	3.5
     2	7.5	8.5

Measurement: 3b_inteval4
  step	v(in)	at
     1	3.125	4.125
     2	9.375	10.375

Measurement: 3b_inteval5
  step	v(in)	at
     1	3.74997	4.74997
     2	11.25	12.25

Measurement: 3b_inteval6
  step	v(in)	at
     1	4.375	5.375
     2	13.125	14.125

Total elapsed time: 0.145 seconds.

