LTspice 24.0.9 for Windows
Circuit: adc_converter
Start Time: Thu Jun 20 17:26:43 2024
Error: unknown token in: "v(in)>=v(vdac[[]3])?{vhigh}:{vlow}"
Error: unknown token in: "{vdac_vref}*v(quantization_step_size)*(v(out[[]3])/2+{vhigh}/4+{vlow}/8+{vlow}/16)"
Error: unknown token in: "v(in)>=v(vdac[[]2])?{vhigh}:{vlow}"
Error: unknown token in: "{vdac_vref}*v(quantization_step_size)*(v(out[[]3])/2+v(out[2])/4+{vhigh}/8+{vlow}/16)"
Error: unknown token in: "v(in)>=v(vdac[[]1])?{vhigh}:{vlow}"
Error: unknown token in: "{vdac_vref}*v(quantization_step_size)*(v(out[[]3])/2+v(out[2])/4+v(out[1])/8+{vhigh}/16)"
Error: unknown token in: "v(in)>=v(vdac[[]0])?{vhigh}:{vlow}"
Error: unknown token in: "v(in)>=v(vdac[[]2])?{vhigh}:{vlow}"
Error: unknown token in: "{vdac_vref}*v(quantization_step_size)*(v(out[[]2])/2+{vhigh}/4+{vlow}/8)"
Error: unknown token in: "v(in)>=v(vdac[[]1])?{vhigh}:{vlow}"
Error: unknown token in: "{vdac_vref}*v(quantization_step_size)*(v(out[[]2])/2+v(out[1])/4+{vhigh}/8)"
Error: unknown token in: "v(in)>=v(vdac[[]0])?{vhigh}:{vlow}"
solver = Normal
Maximum thread count: 12
tnom = 27
temp = 27
method = modified trap
WARNING: Less than two connections to node dac_4bits:calc_n_quant_levels.  This node is used by v:dac_4bits:quant_level.
WARNING: Less than two connections to node out1[0].  This node is used by b:dac_4bits:0_out.
WARNING: Less than two connections to node dac_3bits:calc_n_quant_levels.  This node is used by v:dac_3bits:quant_level.
WARNING: Less than two connections to node out2[0].  This node is used by b:dac_3bits:0_out.
Direct Newton iteration for .op point succeeded.

_____________________________________adc_4bits_____________________________________: 0=0
4b_range_max_lvl_0: v(in)=0.9375 at 0.9375
4b_range_max_lvl_1: v(in)=1.875 at 1.875
4b_range_max_lvl_2: v(in)=2.8125 at 2.8125
4b_range_max_lvl_3: v(in)=3.75 at 3.75
4b_range_max_lvl_4: v(in)=4.6875 at 4.6875
4b_range_max_lvl_5: v(in)=5.625 at 5.625
4b_range_max_lvl_6: v(in)=6.5625 at 6.5625
4b_range_max_lvl_7: v(in)=7.5 at 7.5
4b_range_max_lvl_8: v(in)=8.4375 at 8.4375
4b_range_max_lvl_9: v(in)=9.375 at 9.375
4b_range_max_lvl_10: v(in)=10.3125 at 10.3125
4b_range_max_lvl_11: v(in)=11.25 at 11.25
4b_range_max_lvl_12: v(in)=12.1875 at 12.1875
4b_range_max_lvl_13: v(in)=13.125 at 13.125
4b_range_max_lvl_14: v(in)=14.0625 at 14.0625
_____________________________________adc_3bits_____________________________________: 0=0
3b_range_max_lvl_0: v(in)=1.875 at 1.875
3b_range_max_lvl_1: v(in)=3.75 at 3.75
3b_range_max_lvl_2: v(in)=5.625 at 5.625
3b_range_max_lvl_3: v(in)=7.5 at 7.5
3b_range_max_lvl_4: v(in)=9.375 at 9.375
3b_range_max_lvl_5: v(in)=11.25 at 11.25
3b_range_max_lvl_6: v(in)=13.125 at 13.125

Total elapsed time: 0.165 seconds.

