LTspice 24.0.9 for Windows
Circuit: *
Start Time: Fri Jun 28 18:03:44 2024
Fatal Error: No analysis request found.
