Error: unknown token in: "v(in)>=v(vdac[[]3])?{vhigh}:{vlow}"
Error: unknown token in: "{vref}*(v(out[[]3])/2+{vhigh}/4+{vlow}/8+{vlow}/16)"
Error: unknown token in: "v(in)>=v(vdac[[]2])?{vhigh}:{vlow}"
Error: unknown token in: "{vref}*(v(out[[]3])/2+v(out[2])/4+{vhigh}/8+{vlow}/16)"
Error: unknown token in: "v(in)>=v(vdac[[]1])?{vhigh}:{vlow}"
Error: unknown token in: "{vref}*(v(out[[]3])/2+v(out[2])/4+v(out[1])/8+{vhigh}/16)"
Error: unknown token in: "v(in)>=v(vdac[[]0])?{vhigh}:{vlow}"
LTspice 24.0.9 for Windows
Circuit: * C:\Users\jesse\Downloads\ADC_SAR_01.asc
Start Time: Sat Jun 15 10:15:48 2024
solver = Normal
Maximum thread count: 12
tnom = 27
temp = 27
method = modified trap
WARNING: Less than two connections to node out[0].  This node is used by b0_out.
Direct Newton iteration for .op point succeeded.
Total elapsed time: 0.063 seconds.

