LTspice 24.0.9 for Windows
Circuit: adc_converter
Start Time: Fri Jun 14 21:18:45 2024
solver = Normal
Maximum thread count: 12
tnom = 27
temp = 27
method = modified trap
vinput: Removing PWL point (0.005,0)
WARNING: Less than two connections to node clk.  This node is used by vclk.
.OP point found by inspection.
Total elapsed time: 0.189 seconds.

