LTspice 24.0.9 for Windows
Circuit: *Subcircuit of Counter of 2 bits
Start Time: Sat Jun 29 10:43:40 2024
Fatal Error: No analysis request found.
