LTspice 24.0.9 for Windows
Circuit: *------------------------------------------------------------------------------------------
Start Time: Mon Jun 24 21:43:04 2024
Fatal Error: No analysis request found.
