LTspice 24.0.9 for Windows
Circuit: *------------------------------------------------------------------------------------------
Start Time: Mon Jun 24 11:20:09 2024
Fatal Error: No analysis request found.
