LTspice 24.0.9 for Windows
Circuit: *NOTE:
Start Time: Mon Jun 17 09:21:51 2024
solver = Normal
Maximum thread count: 12



.step temp=-40°C
.OP point found by inspection.



.step temp=0°C



.step temp=40°C



.step temp=80°C



.step temp=120°C



.step temp=160°C
tnom = 27
temp = 180
method = modified trap
.step temp=180°C


Measurement: vth
  step	v(in)	at
     1	0.808163	0.808163
     2	0.744108	0.744108
     3	0.678528	0.678528
     4	0.61163	0.61163
     5	0.543562	0.543562
     6	0.474478	0.474478
     7	0.439622	0.439622

Total elapsed time: 0.245 seconds.

