Questionable use of curly braces in ".meas tran t param {delta_t1/delta_sample}"
    Error: undefined symbol in: "[delta_t1]/delta_sample"
Questionable use of curly braces in ".meas tran cal_t param {cal_t_on+cal_t_off}"
    Error: undefined symbol in: "[cal_t_on]+cal_t_off"
Questionable use of curly braces in ".meas tran t_off param {t-t_on}"
    Error: undefined symbol in: "[t]-t_on"
Questionable use of curly braces in ".meas tran f param {1/t}"
    Error: undefined symbol in: "1/[t]"
Questionable use of curly braces in ".meas tran cal_f param {1/cal_t}"
    Error: undefined symbol in: "1/[cal_t]"
Questionable use of curly braces in ".meas tran duty_cycle param {(t_on/t)*100}"
    Error: undefined symbol in: "([t_on]/t)*100"
LTspice 24.0.9 for Windows
Circuit: 555_TIMER1.CIR - ASTABLE MODE
Start Time: Thu May  9 13:37:49 2024
solver = Normal
Maximum thread count: 12
tnom = 27
temp = 27
method = modified trap
Per .tran options, skipping operating point for transient analysis.
Changing Tseed to 4.88281e-13
Changing Tseed to 4.88281e-15

v_ctrl_max: MAX(v(15))=4.84383 FROM 0 TO 5e-06
t_on=7.51658e-07 FROM 2.78488e-06 TO 3.53654e-06
cal_t_on: 7.634e-07=7.634e-07
delta_t1=1.55032e-06 FROM 2.78488e-06 TO 4.33521e-06
t: (delta_t1/delta_sample)=1.55032e-06
cal_t: (cal_t_on+cal_t_off)=1.4574e-06
t_off: (t-t_on)=7.98665e-07
cal_t_off: 6.94e-07=6.94e-07
f: (1/t)=645027
cal_f: (1/cal_t)=686153
duty_cycle: ((t_on/t)*100)=48.4839
cal_duty_cycle: 52.3809523809524=52.381

Total elapsed time: 0.092 seconds.

