LTspice 24.0.9 for Windows
Circuit: OP_LIMITER1.CIR - OPAMP WITH ZENER LIMITING
Start Time: Sat May 18 12:24:36 2024
solver = Normal
Maximum thread count: 12
tnom = 27
temp = 27
method = modified trap
.OP point found by inspection.
Total elapsed time: 0.047 seconds.

