LTspice 24.0.9 for Windows
Circuit: OP_LIMITER0.CIR - BASIC DIODE LIMITER
Start Time: Sat May 18 12:24:05 2024
solver = Normal
Maximum thread count: 12
tnom = 27
temp = 27
method = modified trap
WARNING: Less than two connections to node 4.  This node is used by d2.
.OP point found by inspection.
Total elapsed time: 0.073 seconds.

