LTspice 24.0.9 for Windows
Circuit: OPDFR.CIR - OPAMP DIFFERENTIATOR
Start Time: Tue May 28 22:21:22 2024
solver = Normal
Maximum thread count: 12
tnom = 27
temp = 27
method = modified trap
.OP point found by inspection.
Total elapsed time: 0.108 seconds.

