LTspice 24.0.9 for Windows
Circuit: * C:\Users\jesse\OneDrive\Escritorio\ADC PROVICIONAL\4Bit_ADC_DAC_pipeV2.asc
Start Time: Fri Jun 14 23:04:26 2024
solver = Normal
Maximum thread count: 12
tnom = 27
temp = 27
method = modified trap
WARNING: Specified period is not longer than the sum of Trise, Tfall, and Ton for v3.  Increasing period to 0.065536
WARNING: Less than two connections to node res1.  This node is used by b:x4:5.
WARNING: Less than two connections to node out[0].  This node is used by b:x1:0.
WARNING: Less than two connections to node in1x.  This node is used by v3.
Direct Newton iteration for .op point succeeded.
Total elapsed time: 0.142 seconds.

