LTspice 24.0.9 for Windows
Circuit: * Definición de parámetros
Start Time: Wed Jun 19 21:08:09 2024
solver = Normal
Maximum thread count: 12
tnom = 27
temp = 27
method = modified trap
WARNING: Less than two connections to node d0.  This node is used by b:x5:0.
Direct Newton iteration for .op point succeeded.
Total elapsed time: 0.167 seconds.

