LTspice 24.0.9 for Windows
Circuit: *NOTE:
Start Time: Mon Jun 17 07:04:58 2024
solver = Normal
Maximum thread count: 12



.step temp=-40°C
.OP point found by inspection.



.step temp=-21°C



.step temp=-2°C



.step temp=17°C



.step temp=36°C



.step temp=55°C



.step temp=74°C



.step temp=93°C



.step temp=112°C



.step temp=131°C
tnom = 27
temp = 150
method = modified trap
.step temp=150°C


Measurement "vth" FAIL'ed

Total elapsed time: 0.350 seconds.

