LTspice 24.0.9 for Windows
Circuit: LOGIC_SW.CIR - BASIC LOGIC GATES USING SWITCHES
Start Time: Fri Apr  5 17:05:40 2024
solver = Normal
Maximum thread count: 12
tnom = 27
temp = 27
method = modified trap
WARNING: Less than two connections to node 11.  This node is used by vc.
Direct Newton iteration for .op point succeeded.
Total elapsed time: 0.065 seconds.

