Error: unknown token in: "((v(in[[]0])/{{vcc}})*1+(v(in[1])/{{vcc}})*2+(v(in[2])/{{vcc}})*4+(v(in[3])/{{vcc}})*8)*{quant_step_size}"
LTspice 24.0.9 for Windows
Circuit: *DAC OF 8 BITS
Start Time: Mon Jun 24 10:46:37 2024
solver = Normal
Maximum thread count: 12
tnom = 27
temp = 27
method = modified trap
WARNING: Less than two connections to node out_dac.  This node is used by edac2.
.OP point found by inspection.
Total elapsed time: 0.069 seconds.

