LTspice 24.0.9 for Windows
Circuit: SAMPLING.CIR - SAMPLING CIRCUIT
Start Time: Wed May 22 07:21:17 2024
solver = Normal
Maximum thread count: 12
tnom = 27
temp = 27
method = modified trap
Laplace(e_lpfilter): Window=1.1143538ms Nfft=1024
Laplace(e_lpfilter2): Window=2.7500264ms Nfft=2048
.OP point found by inspection.
Total elapsed time: 0.065 seconds.

