Questionable use of curly braces in ".meas tran m param {(num2-num1)/(40us-10use)}"
    Error: undefined symbol in: "([num2]-num1)/(40us-10use)"
LTspice 24.0.9 for Windows
Circuit: OPAMP2.CIR - OPAMP MODEL (LEVEL 2)
Start Time: Tue May 21 07:09:32 2024
solver = Normal
Maximum thread count: 12
tnom = 27
temp = 27
method = modified trap
Direct Newton iteration for .op point succeeded.

num1: v(out)=0.0117631 at 1e-06
num2: v(out)=0.0235255 at 2e-06
t_1v: time=8.52351e-05 at 8.52351e-05
m: ((num2-num1)/(40us-10use))=392.08

Total elapsed time: 0.127 seconds.

