Questionable use of curly braces in ".meas tran m param {(num2-num1)/(40us-10use)}"
    Error: undefined symbol in: "([num2]-num1)/(40us-10use)"
LTspice 24.0.9 for Windows
Circuit: OPAMP2.CIR - OPAMP MODEL (LEVEL 2)
Start Time: Sun May 19 11:16:31 2024
solver = Normal
Maximum thread count: 12
tnom = 27
temp = 27
method = modified trap
Direct Newton iteration for .op point succeeded.


Measurement "num1" FAIL'ed

Measurement "num2" FAIL'ed

Measurement "t_1v" FAIL'ed

Measurement "m" FAIL'ed

Total elapsed time: 0.169 seconds.

