LTspice 24.0.9 for Windows
Circuit: *OPAMP2.CIR - OPAMP MODEL (LEVEL 2)
Start Time: Sun May 19 11:12:00 2024
Fatal Error: No analysis request found.
