LTspice 24.0.9 for Windows
Circuit: OPMODEL1.CIR - OPAMP MODEL SINGLE-POLE
Start Time: Sat May 18 13:52:51 2024
solver = Normal
Maximum thread count: 12
tnom = 27
temp = 27
method = modified trap
.OP point found by inspection.
Total elapsed time: 0.084 seconds.

