Questionable use of curly braces in ".meas ac m param {mag(num1/num2)}"
    Error: undefined symbol in: "[mag](num1/num2)"
Questionable use of curly braces in ".meas tran vout_90 param {vout_max*0.9}"
    Error: undefined symbol in: "[vout_max]*0.9"
Questionable use of curly braces in ".meas tran av1 param {vout_max/vin_max}"
    Error: undefined symbol in: "[vout_max]/vin_max"
LTspice 24.0.9 for Windows
Circuit: OPMODEL1.CIR - OPAMP MODEL SINGLE-POLE
Start Time: Mon Jun 10 06:01:19 2024
solver = Normal
Maximum thread count: 12
tnom = 27
temp = 27
method = modified trap
.OP point found by inspection.

vin_max: MAX(v(1))=0.999448 FROM 0 TO 0.03
vout_max: MAX(v(3))=1.99281 FROM 0 TO 0.03
vout_90: (vout_max*0.9)=1.79352
av1: (vout_max/vin_max)=1.9939
av_cal: 2=2
time_vout_90: time=3.61214e-05 at 3.61214e-05

Total elapsed time: 0.104 seconds.

