LTspice 24.0.9 for Windows
Circuit: OPMODEL1.CIR - OPAMP MODEL SINGLE-POLE
Start Time: Mon Mar 11 15:10:01 2024
solver = Normal
Maximum thread count: 12
tnom = 27
temp = 27
method = modified trap
WARNING: Node OP:4 is floating.

.OP point found by inspection.
Total elapsed time: 0.260 seconds.

