LTspice 24.0.9 for Windows
Circuit: * OPAMP MACRO MODEL, SINGLE-POLE
Start Time: Sat Mar 30 11:18:10 2024
Fatal Error: No analysis request found.
