LTspice 24.0.9 for Windows
Circuit: 555_TIMER1.CIR - ASTABLE MODE
Start Time: Thu May  9 11:27:46 2024
solver = Normal
Maximum thread count: 12
tnom = 27
temp = 27
method = modified trap
Per .tran options, skipping operating point for transient analysis.
Changing Tseed to 4.88281e-13
Changing Tseed to 4.88281e-15
Total elapsed time: 0.125 seconds.

