Questionable use of curly braces in ".meas dc halfmaxvout param {maxvout/2}"
    Error: undefined symbol in: "[maxvout]/2"
Questionable use of curly braces in ".meas dc halfmaxvin param {maxvin/2}"
    Error: undefined symbol in: "[maxvin]/2"
LTspice 24.0.9 for Windows
Circuit: * C:\Users\jesse\Documents\GitHub\LTspice_Ecircuit\30_CMOS_INVERTER\CMOS_INVERTER_01.asc
Start Time: Wed Jun 12 20:58:08 2024
solver = Normal
Maximum thread count: 12
tnom = 27
temp = 27
method = modified trap

maxvout: MAX(v(out))=5 FROM 0 TO 5
maxvin: MAX(v(in))=5 FROM 0 TO 5
halfmaxvout: (maxvout/2)=2.5
halfmaxvin: (maxvin/2)=2.5
halfvout: v(in)=2.49965 at 2.49965

Total elapsed time: 0.086 seconds.

