Error: unknown token in: "(v(in[[]0])/{{vcc}})*1+(v(in[1])/{{vcc}})*2+(v(in[2])/{{vcc}})*4+(v(in[3])/{{vcc}})*8"
Error: unknown token in: "((v(in[[]0])/{{vcc}})*1+(v(in[1])/{{vcc}})*2+(v(in[2])/{{vcc}})*4+(v(in[3])/{{vcc}})*8)*{quant_step_size}"
LTspice 24.0.9 for Windows
Circuit: * C:\Users\jesse\Documents\GitHub\LTspice_Ecircuit\33_DAC\Douglas_Reference\DAC.asc
Start Time: Mon Jun 24 11:23:35 2024
solver = Normal
Maximum thread count: 12
tnom = 27
temp = 27
method = modified trap
WARNING: Less than two connections to node aux.  This node is used by vaux.
WARNING: Less than two connections to node n001.  This node is used by a1.
WARNING: Less than two connections to node out_dac2.  This node is used by a1.
WARNING: Less than two connections to node out_dacx.  This node is used by edac1.
WARNING: Less than two connections to node out_cmp.  This node is used by ecmp.
Direct Newton iteration for .op point succeeded.
Total elapsed time: 0.245 seconds.

