LTspice 24.0.9 for Windows
Circuit: CB_BJT_DC
Start Time: Fri Jul 19 11:31:25 2024
solver = Normal
Maximum thread count: 12
tnom = 27
temp = 27
method = modified trap
Total elapsed time: 0.046 seconds.

