LTspice 24.0.9 for Windows
Circuit: * C:\Users\jesse\OneDrive - Universidad Técnica Nacional\Cursos Actuales\Proyecto Electronico\CIRCUITS\15_LM741_IMPORTED\LM741.asc
Start Time: Mon Apr 22 06:40:04 2024
Warning: Multiple definitions of model "2scr375p" Type: BJT
Warning: Multiple definitions of model "bc857b" Type: BJT
Warning: Multiple definitions of model "bc847c" Type: BJT
Warning: Multiple definitions of model "bc847b" Type: BJT
solver = Normal
Maximum thread count: 12
tnom = 27
temp = 27
method = modified trap
Direct Newton iteration for .op point succeeded.
Total elapsed time: 0.147 seconds.

