Questionable use of curly braces in ".meas ac xc param {cal_xc(p_fin,p_c1)}"
    Error: undefined symbol in: "(-1/(2*pi*[p_fin]*p_c1))"
Questionable use of curly braces in ".meas ac mag_impeance param {vec_mag(xc,p_r1)}"
    Error: undefined symbol in: "(sqrt([xc]**2+p_r1**2))"
Questionable use of curly braces in ".meas ac real param {re(gain_at_fc)}"
    Error: undefined symbol in: "[re](gain_at_fc)"
Questionable use of curly braces in ".meas ac imaginary param {im(gain_at_fc)}"
    Error: undefined symbol in: "[im](gain_at_fc)"
Questionable use of curly braces in ".meas ac mag_voltage param {vec_mag(real,imaginary)}"
    Error: undefined symbol in: "(sqrt([real]**2+imaginary**2))"
Questionable use of curly braces in ".meas ac angle_vec1 param {vec_angle(xc,p_r1)}"
    Error: undefined symbol in: "(atan([xc]/p_r1))"
Questionable use of curly braces in ".meas ac angle_vec2 param {vec_angle(imaginary,real)}"
    Error: undefined symbol in: "(atan([imaginary]/real))"
Questionable use of curly braces in ".meas ac m param {20*log10(num1)-20*log10(num2)}"
    Error: undefined symbol in: "20*log10([num1])-20*log10(num2)"
Questionable use of curly braces in ".meas tran phase_cal param -arctan(2*pi*{p_fc}*{p_r1}*{p_c1})"
    Error: undefined symbol in: "[p_fc]"
LTspice 24.0.9 for Windows
Circuit: OPFIL1.CIR - RC LOW-PASS FILTER WITH OPAMP BUFFER
Start Time: Wed May 15 08:20:00 2024
solver = Normal
Maximum thread count: 12
tnom = 27
temp = 27
method = modified trap
.OP point found by inspection.

gain_dc_aol: MAX(v(out))=(0.9999,-0.00999928) FROM 100 TO 1e+06
fc_ol: mag(v(out))=(gain_dc_aol/sqrt(2)) AT 10012.6
gain_at_fc: v(out)=(0.499435,-0.500437) at 10012.6
gain_at_fc_mag: mag(v(out))=(0.707036,0) at 10012.6
xc: (cal_xc(p_fin,p_c1))=(-159.155,0)
mag_impeance: (vec_mag(xc,p_r1))=(15900.8,0)
real: (re(gain_at_fc))=(0.499435,0)
imaginary: (im(gain_at_fc))=(-0.500437,0)
mag_voltage: (vec_mag(real,imaginary))=(0.707016,0)
angle_vec1: (vec_angle(xc,p_r1))=(-0.573497,0)
angle_vec2: (vec_angle(imaginary,real))=(-45.0575,0)
num1: v(out)=(0.00892807,-0.0991936) at 100000
num2: v(out)=(-0.000891836,-0.00991954) at 1e+06
m: (20*log10(num1)-20*log10(num2))=(19.9999,1.55851)

Total elapsed time: 0.047 seconds.

