LTspice 24.0.9 for Windows
Circuit: OPAMP2.CIR - OPAMP MODEL (LEVEL 2)
Start Time: Tue May 21 07:10:18 2024
solver = Normal
Maximum thread count: 12
tnom = 27
temp = 27
method = modified trap
Direct Newton iteration for .op point succeeded.
Total elapsed time: 0.080 seconds.

