Questionable use of curly braces in "b1 out 0 v={if(v(1)==0,-v(2),v(2))}"
    Error: undefined symbol in: "if([v](1)==0,-v(2),v(2))"
LTspice 24.0.9 for Windows
Circuit: * C:\Users\jesse\OneDrive - Universidad Técnica Nacional\Cursos Actuales\Proyecto Electronico\CIRCUITS\PLL_PROJECT\MUX2X1\Draft2.asc
Start Time: Wed Jun  5 23:13:58 2024
solver = Normal
Maximum thread count: 12
tnom = 27
temp = 27
method = modified trap
WARNING: Less than two connections to node out.  This node is used by b1.
Direct Newton iteration for .op point succeeded.
Total elapsed time: 0.073 seconds.

