LTspice 24.0.9 for Windows
Circuit: OPAMS_ENCAPSULATION
Start Time: Fri Sep  6 13:45:49 2024
solver = Normal
Maximum thread count: 12



WARNING: Less than two connections to node out.  This node is used by s1.
.OP point found by inspection.
.step model_opamp_encap=1000
tnom = 27
temp = 27
method = modified trap
.step model_opamp_encap=1001
Total elapsed time: 0.224 seconds.

