LTspice 24.0.9 for Windows
Circuit: Ciruito Mallas
Start Time: Fri May 24 12:22:51 2024
solver = Normal
Maximum thread count: 12
tnom = 27
temp = 27
method = modified trap
Direct Newton iteration for .op point succeeded.
Total elapsed time: 0.079 seconds.

