LTspice 24.0.9 for Windows
Circuit: Ciruito Mallas con R3 dependiente
Start Time: Tue Mar 12 10:26:50 2024
solver = Normal
Maximum thread count: 12



WARNING: Less than two connections to node calc_r3.  This node is used by vs2.
Direct Newton iteration for .op point succeeded.
.step param_vin=2



.step param_vin=3



.step param_vin=4



.step param_vin=5



.step param_vin=6



.step param_vin=7



.step param_vin=8



.step param_vin=9
tnom = 27
temp = 27
method = modified trap
.step param_vin=10
Total elapsed time: 0.539 seconds.

