LTspice 24.0.9 for Windows
Circuit: Ciruito Mallas
Start Time: Thu Jun 27 15:36:03 2024
solver = Normal
Maximum thread count: 12
tnom = 27
temp = 27
method = modified trap
Direct Newton iteration for .op point succeeded.
Total elapsed time: 0.097 seconds.

