LTspice 24.0.9 for Windows
Circuit: OP1.CIR - OPAMP CLOSED-LOOP STEP RESPONSE
Start Time: Fri May 24 18:51:39 2024
solver = Normal
Maximum thread count: 12
tnom = 27
temp = 27
method = modified trap
.OP point found by inspection.
Total elapsed time: 0.049 seconds.

