LTspice 24.0.9 for Windows
Circuit: OP_FOLLOW1.CIR - OP AMP VOLTAGE FOLLOWER
Start Time: Sat May 18 10:14:10 2024
solver = Normal
Maximum thread count: 12
tnom = 27
temp = 27
method = modified trap
.OP point found by inspection.

vout_nobuffer_max: MAX(v(20))=0.909091 FROM 0 TO 0.0001
vout_buffer_max: MAX(v(12))=0.99999 FROM 0 TO 0.0001

Total elapsed time: 0.064 seconds.

