LTspice 24.0.9 for Windows
Circuit: PID1.CIR - PID CONTROLLER
Start Time: Tue Aug 20 13:44:28 2024
solver = Normal
Maximum thread count: 12
tnom = 27
temp = 27
method = modified trap
.OP point found by inspection.
Total elapsed time: 0.066 seconds.

