LTspice 24.0.9 for Windows
Circuit: *.TF This is an analysis mode that finds the DC small signal transfer function of a node voltage
Start Time: Thu Mar 28 13:03:56 2024
solver = Normal
Maximum thread count: 12
tnom = 27
temp = 27
method = modified trap
Direct Newton iteration for .op point succeeded.
Total elapsed time: 0.065 seconds.

