LTspice 24.0.9 for Windows
Circuit: *Half wave circuit with Diode
Start Time: Sat Mar 30 07:43:01 2024
solver = Normal
Maximum thread count: 12
tnom = 27
temp = 27
method = modified trap
.OP point found by inspection.

vin_max: MAX(v(in))=9.99569 FROM 0.0004 TO 0.0005
vout_max: MAX(v(out,2))=8.613 FROM 0.0004 TO 0.0005
diff_vin_vout: vin_max-vout_max=1.38269

Total elapsed time: 0.255 seconds.

