LTspice 24.0.9 for Windows
Circuit: * C:\Users\jesse\OneDrive - Universidad Técnica Nacional\Cursos Actuales\Proyecto Electronico\CIRCUITS\08_DC_ANALYSIS\DIODE_1N4148.asc
Start Time: Tue Mar 26 19:51:20 2024
solver = Normal
Maximum thread count: 12



WARNING: Node NC_02 is floating.

WARNING: Less than two connections to node nc_01.  This node is used by r1.
WARNING: Less than two connections to node nc_02.  This node is used by r1.
.step temp=-65°C
.OP point found by inspection.



.step temp=25°C
tnom = 27
temp = 200
method = modified trap
.step temp=200°C


Measurement: vth1
  step	v(out)	at
     1	0.620318	0.620318
     2	0.380901	0.380901
     3	0.0150588	0.0150588

Measurement: vth2
  step	v(out)	at
     1	0.81845	0.81845
     2	0.66347	0.66347
     3	0.343839	0.343839

Measurement: vth3
  step	v(out)	at
     1	0.84307	0.84307
     2	0.697512	0.697512
     3	0.395891	0.395891

Measurement: vth4
  step	v(out)	at
     1	0.96656	0.96656
     2	0.852285	0.852285
     3	0.61122	0.61122

Total elapsed time: 0.127 seconds.

