LTspice 24.0.9 for Windows
Circuit: * C:\Users\jesse\OneDrive - Universidad Técnica Nacional\Cursos Actuales\Proyecto Electronico\CIRCUITS\08_DC_ANALYSIS\Draft1.asc
Start Time: Thu Mar 21 20:13:10 2024
solver = Normal
Maximum thread count: 12
tnom = 27
temp = 27
method = modified trap
.OP point found by inspection.
Total elapsed time: 0.060 seconds.

