LTspice 24.0.9 for Windows
Circuit: HighPassFilter
Start Time: Wed Jun  5 11:27:22 2024
solver = Normal
Maximum thread count: 12
tnom = 27
temp = 27
method = modified trap
.OP point found by inspection.
Total elapsed time: 0.056 seconds.

