Questionable use of curly braces in ".meas tran out_error param {(vout_opideal_max-vout_op1_max)*100}"
    Error: undefined symbol in: "([vout_opideal_max]-vout_op1_max)*100"
Questionable use of curly braces in ".meas tran out_error2 param {(vout_opideal_max-vout_op1_max)*100}"
    Error: undefined symbol in: "([vout_opideal_max]-vout_op1_max)*100"
LTspice 24.0.9 for Windows
Circuit: OP_AOL_DC.CIR
Start Time: Fri May 24 17:55:46 2024
solver = Normal
Maximum thread count: 12
tnom = 27
temp = 27
method = modified trap
WARNING: Less than two connections to node 5.  This node is used by eamp1.
WARNING: Less than two connections to node 15.  This node is used by eamp2.
.OP point found by inspection.

vout_op1_max: MAX(v(3))=9.99995 FROM 0 TO 0.0001
vout_opideal_max: MAX(v(5))=10 FROM 0 TO 0.0001
out_error: ((vout_opideal_max-vout_op1_max)*100)=0.00495911
vout_op2_max: MAX(v(13))=0 FROM 0 TO 0.0001
vout_opideal2_max: MAX(v(12))=4.49998e-06 FROM 0 TO 0.0001
out_error2: ((vout_opideal_max-vout_op1_max)*100)=0.00495911

Total elapsed time: 0.109 seconds.

